Version 4
SHEET 1 3372 844
WIRE -640 -784 -736 -784
WIRE -192 -784 -272 -784
WIRE -32 -784 -48 -784
WIRE 432 -784 336 -784
WIRE 976 -784 880 -784
WIRE -928 -736 -928 -752
WIRE -880 -736 -880 -784
WIRE -880 -736 -928 -736
WIRE -640 -736 -640 -784
WIRE -464 -736 -640 -736
WIRE -272 -736 -272 -784
WIRE -272 -736 -464 -736
WIRE -32 -736 -32 -784
WIRE 48 -736 48 -752
WIRE 48 -736 -32 -736
WIRE 64 -736 48 -736
WIRE 192 -736 192 -784
WIRE 192 -736 160 -736
WIRE 432 -736 432 -784
WIRE 576 -736 432 -736
WIRE 736 -736 736 -784
WIRE 736 -736 576 -736
WIRE 976 -736 976 -784
WIRE 1040 -736 976 -736
WIRE -464 -720 -464 -736
WIRE -464 -720 -496 -720
WIRE -416 -720 -464 -720
WIRE 64 -720 64 -736
WIRE 160 -720 160 -736
WIRE 576 -720 576 -736
WIRE 576 -720 544 -720
WIRE 624 -720 576 -720
WIRE 1312 -720 1216 -720
WIRE 1344 -720 1312 -720
WIRE 1440 -720 1440 -736
WIRE 1440 -720 1424 -720
WIRE -880 -704 -880 -736
WIRE -640 -704 -640 -736
WIRE -496 -704 -496 -720
WIRE -272 -704 -272 -736
WIRE -32 -704 -32 -736
WIRE 192 -704 192 -736
WIRE 432 -704 432 -736
WIRE 544 -704 544 -720
WIRE 736 -704 736 -736
WIRE 976 -704 976 -736
WIRE -928 -688 -928 -736
WIRE 1216 -688 1216 -720
WIRE 1312 -688 1312 -720
WIRE 1040 -624 1040 -736
WIRE 1104 -624 1104 -640
WIRE 1104 -624 1040 -624
WIRE 1216 -624 1104 -624
WIRE 1440 -624 1440 -720
WIRE 1312 -560 1312 -624
WIRE 1312 -560 1136 -560
WIRE 1216 -544 1216 -624
WIRE 1312 -544 1312 -560
WIRE 1104 -528 1104 -544
WIRE 1104 -528 1040 -528
WIRE 1136 -528 1136 -560
WIRE 1136 -528 1104 -528
WIRE 1104 -496 1104 -528
WIRE 1136 -496 1104 -496
WIRE -496 -480 -496 -560
WIRE -464 -480 -496 -480
WIRE -416 -480 -464 -480
WIRE 544 -480 544 -560
WIRE 576 -480 544 -480
WIRE 624 -480 576 -480
WIRE -928 -464 -928 -608
WIRE -464 -464 -464 -480
WIRE -464 -464 -928 -464
WIRE 64 -464 64 -640
WIRE 64 -464 -464 -464
WIRE 160 -464 160 -640
WIRE 576 -464 576 -480
WIRE 576 -464 160 -464
WIRE 1040 -464 1040 -528
WIRE 1040 -464 576 -464
WIRE 1216 -464 1216 -480
WIRE 1312 -464 1312 -480
WIRE 1312 -464 1216 -464
WIRE 1440 -464 1440 -544
WIRE 1440 -464 1312 -464
WIRE -928 -448 -928 -464
WIRE 1440 -448 1440 -464
FLAG -928 -448 0
FLAG 48 -752 L1
FLAG -928 -752 vs1+
FLAG 1440 -448 0
FLAG 1440 -736 Vbat+
FLAG 1104 -640 Re+
FLAG 1136 -496 Re-
FLAG -704 -656 G1
FLAG -656 -656 0
FLAG -368 -544 0
FLAG -208 -656 0
FLAG 416 -656 0
FLAG 672 -544 0
FLAG 960 -656 0
FLAG 464 -352 0
FLAG 336 -352 0
FLAG 208 -352 0
FLAG -48 -352 0
FLAG -176 -352 0
FLAG -320 -352 0
FLAG -320 -432 G1
FLAG -368 -496 G2
FLAG -176 -432 G2
FLAG -256 -656 G3
FLAG -48 -432 G3
FLAG 368 -656 G4
FLAG 208 -432 G4
FLAG 672 -496 G5
FLAG 336 -432 G5
FLAG 912 -656 G6
FLAG 464 -432 G6
SYMBOL ind2 176 -624 R180
WINDOW 0 36 80 Left 2
WINDOW 3 -53 16 Left 2
SYMATTR InstName L2
SYMATTR Value {L2}
SYMATTR Type ind
SYMBOL bv -928 -704 M0
WINDOW 3 -275 324 Left 2
SYMATTR Value V=Vin_0p*cos({w}*time)
SYMATTR InstName vs1
SYMBOL ind2 48 -624 M180
WINDOW 0 36 80 Left 2
WINDOW 3 -56 30 Left 2
SYMATTR InstName L1
SYMATTR Value {L1}
SYMATTR Type ind
SYMBOL res -784 -800 R90
WINDOW 0 0 56 VBottom 2
WINDOW 3 32 56 VTop 2
SYMATTR InstName R1
SYMATTR Value 10m
SYMBOL diode 1232 -624 R180
WINDOW 0 24 64 Left 2
WINDOW 3 24 0 Left 2
SYMATTR InstName D1
SYMBOL diode 1232 -480 R180
WINDOW 0 24 64 Left 2
WINDOW 3 24 0 Left 2
SYMATTR InstName D2
SYMBOL diode 1328 -624 R180
WINDOW 0 24 64 Left 2
WINDOW 3 24 0 Left 2
SYMATTR InstName D3
SYMBOL diode 1328 -480 R180
WINDOW 0 24 64 Left 2
WINDOW 3 24 0 Left 2
SYMATTR InstName D4
SYMBOL bv 1440 -640 M0
WINDOW 3 -144 59 Left 2
WINDOW 0 -89 18 Left 2
SYMATTR Value V={Vv}
SYMATTR InstName Vbat
SYMBOL res 1120 -528 R180
WINDOW 0 36 76 Left 2
WINDOW 3 -65 64 Left 2
SYMATTR InstName Re
SYMATTR Value 10Meg
SYMBOL cap -800 -768 R270
WINDOW 0 32 32 VTop 2
WINDOW 3 0 32 VBottom 2
SYMATTR InstName C1sa
SYMATTR Value {C1sa}
SYMBOL res 1440 -736 R90
WINDOW 0 0 56 VBottom 2
WINDOW 3 32 56 VTop 2
SYMATTR InstName R3
SYMATTR Value 10m
SYMBOL ind2 -704 -688 M270
WINDOW 0 32 56 VTop 2
WINDOW 3 4 56 VBottom 2
SYMATTR InstName L1sa
SYMATTR Value {L1sa}
SYMATTR Type ind
SYMBOL res -784 -720 R90
WINDOW 0 0 56 VBottom 2
WINDOW 3 32 56 VTop 2
SYMATTR InstName R5
SYMATTR Value 10m
SYMBOL res -512 -656 R0
SYMATTR InstName R7
SYMATTR Value 10m
SYMBOL cap -480 -640 R180
WINDOW 0 24 56 Left 2
WINDOW 3 24 8 Left 2
SYMATTR InstName C1pa
SYMATTR Value {C1pa}
SYMBOL ind2 -400 -736 M0
WINDOW 3 -81 81 Left 2
SYMATTR Value {L1pa}
SYMATTR InstName L1pa
SYMATTR Type ind
SYMBOL res -432 -656 R0
SYMATTR InstName R8
SYMATTR Value 10m
SYMBOL res -96 -800 R90
WINDOW 0 0 56 VBottom 2
WINDOW 3 32 56 VTop 2
SYMATTR InstName R9
SYMATTR Value 10m
SYMBOL cap -112 -768 R270
WINDOW 0 32 32 VTop 2
WINDOW 3 0 32 VBottom 2
SYMATTR InstName C1sb
SYMATTR Value {C1sb}
SYMBOL ind2 -16 -688 M270
WINDOW 0 32 56 VTop 2
WINDOW 3 4 56 VBottom 2
SYMATTR InstName L1sb
SYMATTR Value {L1sb}
SYMATTR Type ind
SYMBOL res -96 -720 R90
WINDOW 0 0 56 VBottom 2
WINDOW 3 32 56 VTop 2
SYMATTR InstName R10
SYMATTR Value 10m
SYMBOL res 288 -800 R90
WINDOW 0 0 56 VBottom 2
WINDOW 3 32 56 VTop 2
SYMATTR InstName R11
SYMATTR Value 10m
SYMBOL cap 272 -768 R270
WINDOW 0 32 32 VTop 2
WINDOW 3 0 32 VBottom 2
SYMATTR InstName C2sb
SYMATTR Value {C2sb}
SYMBOL ind2 368 -688 M270
WINDOW 0 32 56 VTop 2
WINDOW 3 4 56 VBottom 2
SYMATTR InstName L2sb
SYMATTR Value {L2sb}
SYMATTR Type ind
SYMBOL res 288 -720 R90
WINDOW 0 0 56 VBottom 2
WINDOW 3 32 56 VTop 2
SYMATTR InstName R12
SYMATTR Value 10m
SYMBOL res 528 -656 R0
SYMATTR InstName R2
SYMATTR Value 10m
SYMBOL cap 560 -640 R180
WINDOW 0 24 56 Left 2
WINDOW 3 24 8 Left 2
SYMATTR InstName C2pa
SYMATTR Value {C2pa}
SYMBOL ind2 640 -736 M0
WINDOW 0 -49 44 Left 2
WINDOW 3 -76 93 Left 2
SYMATTR InstName L2pa
SYMATTR Value {L2pa}
SYMATTR Type ind
SYMBOL res 608 -656 R0
SYMATTR InstName R4
SYMATTR Value 10m
SYMBOL res 832 -800 R90
WINDOW 0 0 56 VBottom 2
WINDOW 3 32 56 VTop 2
SYMATTR InstName R6
SYMATTR Value 10m
SYMBOL cap 816 -768 R270
WINDOW 0 32 32 VTop 2
WINDOW 3 0 32 VBottom 2
SYMATTR InstName C5
SYMATTR Value {C2sa}
SYMBOL ind2 912 -688 M270
WINDOW 0 32 56 VTop 2
WINDOW 3 4 56 VBottom 2
SYMATTR InstName L8
SYMATTR Value {L2sa}
SYMATTR Type ind
SYMBOL res 832 -720 R90
WINDOW 0 0 56 VBottom 2
WINDOW 3 32 56 VTop 2
SYMATTR InstName R13
SYMATTR Value 10m
SYMBOL sw -624 -704 M270
WINDOW 0 -18 1 Left 2
SYMATTR InstName S1
SYMBOL sw -416 -576 M0
WINDOW 0 45 54 Left 2
SYMATTR InstName S2
SYMBOL sw -176 -704 M270
WINDOW 0 39 45 Left 2
WINDOW 3 37 78 Left 2
SYMATTR InstName S3
SYMBOL sw 448 -704 M270
WINDOW 3 37 78 Left 2
SYMATTR InstName S4
SYMBOL sw 624 -576 M0
WINDOW 3 37 78 Left 2
SYMATTR InstName S5
SYMBOL sw 992 -704 M270
WINDOW 3 37 78 Left 2
SYMATTR InstName S6
SYMBOL voltage -320 -448 R0
WINDOW 123 0 0 Left 2
WINDOW 39 0 0 Left 2
SYMATTR InstName Vg1
SYMATTR Value {Vg1}
SYMBOL voltage -176 -448 R0
WINDOW 123 0 0 Left 2
WINDOW 39 0 0 Left 2
SYMATTR InstName Vg2
SYMATTR Value {Vg2}
SYMBOL voltage -48 -448 R0
WINDOW 123 0 0 Left 2
WINDOW 39 0 0 Left 2
SYMATTR InstName Vg3
SYMATTR Value {Vg3}
SYMBOL voltage 208 -448 R0
WINDOW 123 0 0 Left 2
WINDOW 39 0 0 Left 2
SYMATTR InstName Vg4
SYMATTR Value {Vg4}
SYMBOL voltage 336 -448 R0
WINDOW 123 0 0 Left 2
WINDOW 39 0 0 Left 2
SYMATTR InstName Vg5
SYMATTR Value {Vg5}
SYMBOL voltage 464 -448 R0
WINDOW 123 0 0 Left 2
WINDOW 39 0 0 Left 2
SYMATTR InstName Vg6
SYMATTR Value {Vg6}
TEXT -960 -64 Left 2 !.tran 0 10m 0 1u startup uic
TEXT -960 -224 Left 2 !.param C1sa=C1sa_v C1sb=C1sb_v C1pa=C1pa_v L1sa=L1sa_v L1sb=L2sb_v L1pa=L1pa_v C2sa=C2sa_v C2sb=C2sb_v C2pa=C2pa_v L2sa=L2sa_v L2sb=L2sb_v L2pa=L2pa_v
TEXT -600 -856 Left 2 ;General
TEXT -960 -112 Left 2 !.model SW SW(Ron =0.005 Roff=1Meg Vt=.5 Vh=0)
TEXT 80 -856 Left 2 !K1 L1 L2 {Kv}
TEXT 728 -416 Left 2 !.step param Kv 0 0.2 0.05
TEXT 720 -368 Left 2 !.step param Vv 10 410 100
TEXT -960 -280 Left 2 !.param f=f_v T=1/f L1=L1_v L2=L2_v w=2*pi*f Vin_0p=Vin_0p_v
TEXT -960 -176 Left 2 !.param Vg1=Vg1_v Vg2=Vg2_v Vg3=Vg3_v Vg4=Vg4_v Vg5=Vg5_v Vg6=Vg6_v
